108
Coordinates from montecarlo-lj.rb E -841.0213490919
Ar  42.14228  40.06116  41.80949
Ar   6.69695   8.55855   1.29111
Ar   6.35600   1.21938   9.47664
Ar   1.01184   6.56884   7.83768
Ar  41.79714   0.25899  14.08295
Ar   7.17905   8.15919  15.21618
Ar   8.26779   1.25139  19.01203
Ar  40.45105   6.03867  23.02794
Ar   0.66986  42.00160  28.22505
Ar   5.82644   6.79745  26.39647
Ar   7.14439   0.92142  32.88044
Ar  41.52825   7.04147  36.27453
Ar   0.55361  12.26239   0.48934
Ar   6.33845  21.12442   1.54431
Ar   7.18054  15.35372   4.43237
Ar   0.53991  21.12442   6.59861
Ar   2.01529  12.75676  12.60223
Ar   8.02549  19.49917  13.20018
Ar   8.43579  16.10732  20.54136
Ar   0.98700  21.50856  21.28661
Ar  41.98712  14.87724  27.79366
Ar   6.12144  21.24170  28.16589
Ar   5.74033  13.76416  35.55923
Ar   0.41890  21.58611  36.85139
Ar   0.22125  29.87782  41.98821
Ar  10.19802  37.22574  41.38684
Ar   6.37658  30.32635   6.61373
Ar  41.91232  35.02848   7.65566
Ar   0.28915  26.44921  12.77524
Ar   7.09758  35.78880  15.25093
Ar   5.81468  28.44873  21.87148
Ar   0.00000  33.79448  20.46993
Ar  42.04871  29.80502  28.72081
Ar   9.16900  33.51871  26.73732
Ar   7.20364  28.13090  36.02536
Ar   0.00000  35.92465  35.23489
Ar  14.08295   0.79805  41.81627
Ar  18.45221   7.08714   0.94089
Ar  21.98522   0.00000   7.82878
Ar  14.08295   6.72118   7.89265
Ar  14.49684  41.66827  15.37064
Ar  22.26752   6.76537  14.31040
Ar  22.12465   0.51259  21.95112
Ar  13.17267   7.46307  21.98289
Ar  14.88251   1.05228  28.64041
Ar  21.02621   7.70705  28.56447
Ar  19.61750   0.00000  35.39341
Ar  14.73504   6.61664  35.00073
Ar  12.90498  13.88684  41.55828
Ar  19.79553  19.54032   1.19068
Ar  21.87995  14.64341   6.51699
Ar  14.67151  20.47742   7.04147
Ar  15.06580  14.59488  14.42083
Ar  19.70687  20.17255  11.77154
Ar  20.58422  15.09886  21.77719
Ar  13.74675  21.03723  22.02060
Ar  13.64975  13.91553  28.16589
Ar  21.12442  21.40178  27.58769
Ar  20.72858  14.07745  34.35515
Ar  14.59349  20.76466  35.20736
Ar  14.25086  29.15441   1.30629
Ar  20.51040  35.73511  42.09854
Ar  20.22796  27.83561   8.25062
Ar  14.79692  34.18443   7.54657
Ar  14.08295  27.66638  14.08295
Ar  21.21501  36.04954  12.86735
Ar  20.98945  27.43754  19.65694
Ar  12.50454  35.07890  21.76717
Ar  12.81464  29.85985  29.04085
Ar  21.89273  35.12892  29.47185
Ar  22.78246  28.65055  33.99003
Ar  14.89184  34.84551  36.04956
Ar  27.73721   0.34884   0.84570
Ar  34.77228   6.98091   0.48060
Ar  35.84578  42.20474   7.45719
Ar  27.19376   7.13954   5.95991
Ar  28.24238   1.13265  15.20391
Ar  36.07129   8.98067  13.01301
Ar  35.85702  41.06117  21.78427
Ar  27.67850   8.06418  23.31846
Ar  28.76869  42.16291  28.23815
Ar  33.66680   6.87640  26.86795
Ar  35.92437   0.70063  35.31035
Ar  28.51097   6.44744  35.01575
Ar  28.41060  13.63527   0.26777
Ar  34.51807  18.53934   0.00000
Ar  33.71673  13.14534   6.49934
Ar  28.25733  21.36728   5.17607
Ar  28.16589  13.51124  12.52179
Ar  36.14713  20.47918  16.05612
Ar  36.11595  16.01419  21.80465
Ar  28.30829  22.32661  23.33094
Ar  28.64513  14.38871  29.12033
Ar  35.99669  20.59358  28.77019
Ar  37.40705  13.84931  35.20736
Ar  27.49770  20.87839  34.62243
Ar  27.47167  28.37244   0.74615
Ar  34.44395  36.04469   0.41959
Ar  33.88815  28.72319   5.97415
Ar  29.32807  36.84443   8.83628
Ar  27.37515  28.95274  13.44461
Ar  36.37085  34.21166  12.33454
Ar  34.80719  26.61371  20.55571
Ar  26.69995  35.96971  19.99922
Ar  27.25594  28.33163  30.27094
Ar  33.88593  32.63315  28.46635
Ar  37.12569  26.90774  35.29820
Ar  27.44385  35.71089  35.13933
